currents.csv
Element, I1_1, Ang1_1, I1_2, Ang1_2, I1_3, Ang1_3, I1_4, Ang1_4, Iresid1, AngResid1, I2_1, Ang2_1, I2_2, Ang2_2, I2_3, Ang2_3, I2_4, Ang2_4, Iresid2, AngResid2
Vsource.SOURCE,    389.745,   144.81,    185.253,    11.77,    262.464,   -96.64,          0,     0.00,    167.521,   179.42,    389.745,   -35.19,    185.253,  -168.23,    262.464,    83.36,          0,     0.00,    167.521,    -0.58
Line.L115,    380.239,   -35.19,    180.734,  -168.23,    256.063,    83.36,          0,     0.00,    163.435,    -0.58,     380.24,   144.81,    180.735,    11.77,    256.063,   -96.64,          0,     0.00,    163.435,   179.42
Line.L1,    9.09014,  -146.61,          0,     0.00,          0,     0.00,          0,     0.00,    9.09014,  -146.61,     9.0903,    33.39,          0,     0.00,          0,     0.00,          0,     0.00,     9.0903,    33.39
Line.L2,    46.5623,    93.31,          0,     0.00,          0,     0.00,          0,     0.00,    46.5623,    93.31,    46.5625,   -86.69,          0,     0.00,          0,     0.00,          0,     0.00,    46.5625,   -86.69
Line.L3,    362.119,   -35.61,    172.318,  -169.35,    210.355,    81.17,          0,     0.00,    161.174,   -12.48,     362.12,   144.39,    172.318,    10.65,    210.356,   -98.83,          0,     0.00,    161.174,   167.52
Line.L4,    18.3186,    93.32,          0,     0.00,          0,     0.00,          0,     0.00,    18.3186,    93.32,    18.3188,   -86.68,          0,     0.00,          0,     0.00,          0,     0.00,    18.3188,   -86.68
Line.L5,    28.2439,    93.30,          0,     0.00,          0,     0.00,          0,     0.00,    28.2439,    93.30,    28.2442,   -86.70,          0,     0.00,          0,     0.00,          0,     0.00,    28.2442,   -86.70
Line.L6,    18.9272,    93.29,          0,     0.00,          0,     0.00,          0,     0.00,    18.9272,    93.29,    18.9275,   -86.71,          0,     0.00,          0,     0.00,          0,     0.00,    18.9275,   -86.71
Line.L7,    353.003,   -35.83,    172.318,  -169.35,    210.356,    81.17,          0,     0.00,    152.272,   -11.61,    353.004,   144.17,    172.319,    10.65,    210.356,   -98.83,          0,     0.00,    152.273,   168.39
Line.L8,    9.09669,  -146.69,          0,     0.00,          0,     0.00,          0,     0.00,    9.09669,  -146.69,     9.0969,    33.31,          0,     0.00,          0,     0.00,          0,     0.00,     9.0969,    33.31
Line.L9,    46.5403,   -27.35,          0,     0.00,          0,     0.00,          0,     0.00,    46.5403,   -27.35,    46.5405,   152.65,          0,     0.00,          0,     0.00,          0,     0.00,    46.5405,   152.65
Line.L10,    307.049,   -37.11,    163.962,  -170.57,    210.356,    81.17,          0,     0.00,    115.502,    -2.11,     307.05,   142.89,    163.963,     9.43,    210.356,   -98.83,          0,     0.00,    115.502,   177.89
Line.L11,    27.9968,   -27.37,          0,     0.00,          0,     0.00,          0,     0.00,    27.9968,   -27.37,    27.9972,   152.63,          0,     0.00,          0,     0.00,          0,     0.00,    27.9972,   152.63
Line.L12,    46.5435,    93.25,          0,     0.00,          0,     0.00,          0,     0.00,    46.5435,    93.25,    46.5436,   -86.75,          0,     0.00,          0,     0.00,          0,     0.00,    46.5436,   -86.75
Line.L13,     229.24,   -29.47,    155.335,  -154.31,     154.09,    89.59,          0,     0.00,    66.0479,   -23.22,    229.242,   150.53,    155.336,    25.69,    154.091,   -90.41,          0,     0.00,    66.0477,   156.78
Line.L14,    18.6805,   -27.37,          0,     0.00,          0,     0.00,          0,     0.00,    18.6805,   -27.37,    18.6807,   152.63,          0,     0.00,          0,     0.00,          0,     0.00,    18.6807,   152.63
Line.L15,    9.31668,   -27.36,          0,     0.00,          0,     0.00,          0,     0.00,    9.31668,   -27.36,    9.31691,   152.64,          0,     0.00,          0,     0.00,          0,     0.00,    9.31691,   152.64
Line.L16,    18.5092,    93.23,          0,     0.00,          0,     0.00,          0,     0.00,    18.5092,    93.23,    18.5096,   -86.77,          0,     0.00,          0,     0.00,          0,     0.00,    18.5096,   -86.77
Line.L17,    9.24965,    93.25,          0,     0.00,          0,     0.00,          0,     0.00,    9.24965,    93.25,    9.24997,   -86.76,          0,     0.00,          0,     0.00,          0,     0.00,    9.24997,   -86.76
Line.L18,    37.4415,   -27.95,          0,     0.00,          0,     0.00,          0,     0.00,    37.4415,   -27.95,    37.4417,   152.05,          0,     0.00,          0,     0.00,          0,     0.00,    37.4417,   152.05
Line.L19,    55.9429,   -28.12,    18.9697,  -146.97,    56.0435,    93.15,          0,     0.00,    35.9479,    32.39,    55.9433,   151.88,      18.97,    33.03,    56.0441,   -86.85,          0,     0.00,    35.9479,  -147.61
Line.L20,    18.6335,   -27.96,          0,     0.00,          0,     0.00,          0,     0.00,    18.6335,   -27.96,    18.6338,   152.04,          0,     0.00,          0,     0.00,          0,     0.00,    18.6338,   152.04
Line.L21,    18.9718,  -146.99,          0,     0.00,          0,     0.00,          0,     0.00,    18.9718,  -146.99,    18.9723,    33.01,          0,     0.00,          0,     0.00,          0,     0.00,    18.9723,    33.01
Line.L22,    55.9433,   -28.12, 0.00459907,   -33.99,    56.0441,    93.15,          0,     0.00,     54.919,    32.60,    55.9436,   151.88, 0.00386919,   146.01,    56.0445,   -86.85,          0,     0.00,     54.919,  -147.40
Line.L23,    18.6736,    93.14,          0,     0.00,          0,     0.00,          0,     0.00,    18.6736,    93.14,    18.6741,   -86.86,          0,     0.00,          0,     0.00,          0,     0.00,    18.6741,   -86.86
Line.L24,    55.9436,   -28.12, 0.00386919,   -33.99,    37.3709,    93.15,          0,     0.00,    48.5392,    13.03,     55.944,   151.88, 0.00306623,   146.01,    37.3714,   -86.85,          0,     0.00,    48.5391,  -166.97
Line.L25,    18.6329,   -28.14,    18.6863,    93.15,          0,     0.00,          0,     0.00,    18.2948,    32.65,    18.6332,   151.86,    18.6868,   -86.85,          0,     0.00,          0,     0.00,    18.2951,  -147.35
Line.L26,    37.0782,   -28.11, 0.00306623,   -33.99,    18.6851,    93.15,          0,     0.00,    31.7019,     2.14,    37.0785,   151.89, 0.00248221,   146.01,    18.6855,   -86.85,          0,     0.00,    31.7018,  -177.86
Line.L27,    18.6332,   -28.14, 0.000722437,  -141.28,          0,     0.00,          0,     0.00,    18.6329,   -28.14,    18.6334,   151.86, 8.13477E-12,  -116.57,          0,     0.00,          0,     0.00,    18.6334,   151.86
Line.L28,    18.6872,    93.15,          0,     0.00,          0,     0.00,          0,     0.00,    18.6872,    93.15,    18.6874,   -86.86,          0,     0.00,          0,     0.00,          0,     0.00,    18.6874,   -86.86
Line.L29,    18.6334,   -28.14,          0,     0.00,          0,     0.00,          0,     0.00,    18.6334,   -28.14,    18.6338,   151.85,          0,     0.00,          0,     0.00,          0,     0.00,    18.6338,   151.85
Line.L30,    18.4446,   -28.12, 0.00248221,   -33.99,    18.6855,    93.15,          0,     0.00,    18.2103,    33.17,     18.445,   151.88, 0.00160614,   146.01,     18.686,   -86.85,          0,     0.00,    18.2103,  -146.83
Line.L31, 0.00186516,    84.44, 0.00160614,   -33.99,     18.686,    93.15,          0,     0.00,    18.6869,    93.14, 0.000678248,   -95.56, 0.000584049,   146.01,    18.6867,   -86.85,          0,     0.00,     18.687,   -86.86
Line.L32, 0.000678248,    84.44, 0.000584049,   -33.99, 0.000638161,  -142.66,          0,     0.00, 0.0000574552,   -42.12, 7.27596E-12,   -90.00, 4.00178E-11,   180.00, 7.27596E-12,   -90.00,          0,     0.00, 4.25815E-11,  -160.02
Line.L33,    9.34543,    93.14,          0,     0.00,          0,     0.00,          0,     0.00,    9.34543,    93.14,     9.3457,   -86.86,          0,     0.00,          0,     0.00,          0,     0.00,     9.3457,   -86.86
Line.L34,    27.7588,    93.24,          0,     0.00,          0,     0.00,          0,     0.00,    27.7588,    93.24,    27.7589,   -86.76,          0,     0.00,          0,     0.00,          0,     0.00,    27.7589,   -86.76
Line.L35,     18.401,   -28.03,    18.4915,  -147.11,          0,     0.00,          0,     0.00,    18.7032,   -87.81,     18.402,   151.97,     18.492,    32.89,          0,     0.00,          0,     0.00,    18.7037,    92.19
Line.L36,    108.732,   -33.99,    108.241,  -154.62,    98.2184,    87.55,          0,     0.00,    9.69543,  -110.85,    108.732,   146.01,    108.241,    25.38,    98.2187,   -92.45,          0,     0.00,     9.6954,    69.15
Line.L37,     18.402,   -28.03,          0,     0.00,          0,     0.00,          0,     0.00,     18.402,   -28.03,    18.4023,   151.96,          0,     0.00,          0,     0.00,          0,     0.00,    18.4023,   151.96
Line.L38,     18.492,  -147.11,          0,     0.00,          0,     0.00,          0,     0.00,     18.492,  -147.11,    18.4923,    32.89,          0,     0.00,          0,     0.00,          0,     0.00,    18.4923,    32.89
Line.L39,    9.17528,  -147.11,          0,     0.00,          0,     0.00,          0,     0.00,    9.17528,  -147.11,    9.17558,    32.88,          0,     0.00,          0,     0.00,          0,     0.00,    9.17558,    32.88
Line.L40,    9.32526,    93.09,          0,     0.00,          0,     0.00,          0,     0.00,    9.32526,    93.09,    9.32556,   -86.91,          0,     0.00,          0,     0.00,          0,     0.00,    9.32556,   -86.91
Line.L41,    108.732,   -33.99,    108.241,  -154.62,    88.9416,    86.97,          0,     0.00,    18.6072,   -99.11,    108.733,   146.01,    108.241,    25.38,    88.9419,   -93.03,          0,     0.00,    18.6071,    80.89
Line.L42,    18.8825,  -147.17,          0,     0.00,          0,     0.00,          0,     0.00,    18.8825,  -147.17,    18.8829,    32.83,          0,     0.00,          0,     0.00,          0,     0.00,    18.8829,    32.83
Line.L43,    99.3403,   -34.56,    89.5517,  -156.18,    88.9419,    86.97,          0,     0.00,    5.88427,   -38.83,    99.3408,   145.44,     89.552,    23.82,    88.9422,   -93.03,          0,     0.00,    5.88429,   141.17
Line.L44,    18.7835,   -28.11,          0,     0.00,          0,     0.00,          0,     0.00,    18.7835,   -28.11,    18.7837,   151.89,          0,     0.00,          0,     0.00,          0,     0.00,    18.7837,   151.89
Line.L45,    80.7034,   -36.05,     89.552,  -156.18,    88.9422,    86.97,          0,     0.00,    13.0478,   156.70,     80.704,   143.95,    89.5525,    23.82,    88.9425,   -93.03,          0,     0.00,    13.0478,   -23.30
Line.L46,    9.46673,   -28.12,          0,     0.00,          0,     0.00,          0,     0.00,    9.46673,   -28.12,      9.467,   151.88,          0,     0.00,          0,     0.00,          0,     0.00,      9.467,   151.88
Line.L47,     35.209,   -37.10,    36.2416,  -156.19,    35.6674,    84.00,          0,     0.00,    1.40579,  -163.44,    35.2091,   142.90,     36.242,    23.81,    35.6676,   -96.00,          0,     0.00,    1.40595,    16.56
Line.L48,    27.6128,   -34.04,    35.4025,  -156.19,    35.5472,    91.45,          0,     0.00,    11.9061,   150.93,    27.6129,   145.96,    35.4032,    23.81,    35.5475,   -88.55,          0,     0.00,    11.9063,   -29.07
Line.L49,    9.47206,   -28.14, 0.00314006,    -8.68,    18.7053,    92.96,          0,     0.00,    16.0204,    62.52,    9.47215,   151.86, 0.00235509,   171.32,    18.7055,   -87.05,          0,     0.00,    16.0202,  -117.48
Line.L50,    9.47215,   -28.14, 0.00235509,    -8.68, 0.00238866,  -158.86,          0,     0.00,    9.47282,   -28.15,    9.47225,   151.86, 0.00157007,   171.32, 0.00159244,    21.14,          0,     0.00,    9.47269,   151.85
Line.L51, 0.00121549,    70.71, 0.00157007,    -8.68, 0.00159244,  -158.86,          0,     0.00, 0.000576345,    35.67, 3.89414E-9,   178.41, 7.86787E-8,    59.33, 5.30154E-8,   -60.54,          0,     0.00, 6.59617E-8,    19.14
Line.L52,    70.0163,   -65.76,    45.9614,   118.27,    34.6183,    12.18,          0,     0.00,    43.8616,   -21.47,    70.0169,   114.24,     45.962,   -61.73,    34.6189,  -167.82,          0,     0.00,    43.8616,   158.53
Line.L53,    56.5353,   -77.55,     45.962,   118.27,    34.6189,    12.18,          0,     0.00,    25.3665,   -17.01,    56.5357,   102.45,    45.9624,   -61.73,    34.6193,  -167.82,          0,     0.00,    25.3665,   162.99
Line.L54,    9.28826,   -27.54,    9.09801,  -146.66, 0.00160167,  -153.94,          0,     0.00,    9.31722,   -86.10,    9.28877,   152.46,    9.09837,    33.33, 0.000800843,    26.06,          0,     0.00,     9.3172,    93.90
Line.L55,    51.0651,   -85.56,    47.6366,   107.30,    34.6208,    12.19,          0,     0.00,     23.698,     4.54,    51.0661,    94.44,    47.6373,   -72.70,     34.622,  -167.81,          0,     0.00,    23.6979,  -175.46
Line.L56, 0.000876376,    97.51,    9.09837,  -146.67, 0.000800843,  -153.94,          0,     0.00,    9.09878,  -146.67, 5.14488E-12,  -135.00,    9.09873,    33.33, 1.45519E-11,   -90.00,          0,     0.00,    9.09873,    33.33
Line.L57,    18.4222,  -146.61,          0,     0.00,          0,     0.00,          0,     0.00,    18.4222,  -146.61,    18.4225,    33.39,          0,     0.00,          0,     0.00,          0,     0.00,    18.4225,    33.39
Line.L58,    51.0661,   -85.56,    55.6339,    88.75,     34.622,    12.19,          0,     0.00,    40.8134,    17.12,    51.0683,    94.44,    55.6347,   -91.25,    34.6245,  -167.81,          0,     0.00,    40.8132,  -162.88
Line.L59,    9.10544,  -146.61,          0,     0.00,          0,     0.00,          0,     0.00,    9.10544,  -146.61,    9.10567,    33.39,          0,     0.00,          0,     0.00,          0,     0.00,    9.10567,    33.39
Line.L60, 0.00185682,    93.94, 0.00176554,   -37.91, 0.00158353,  -146.58,          0,     0.00,  0.0001188,  -118.31, 0.0000138433,    91.55, 0.0000141242,   -28.36, 0.0000139911,  -148.40,          0,     0.00, 2.44542E-7,   -55.82
Line.L61,    45.3515,   -38.90,    52.2794,  -148.40,    80.7459,    94.58,          0,     0.00,    29.1914,   122.51,    45.3561,   141.09,    52.2832,    31.59,    80.7492,   -85.42,          0,     0.00,    29.1917,   -57.49
Line.L62,    45.3561,   -38.91,    52.2832,  -148.41,    62.0672,    94.91,          0,     0.00,    15.7266,   157.71,    45.3594,   141.08,    52.2858,    31.58,    62.0695,   -85.10,          0,     0.00,    15.7268,   -22.29
Line.L63,    27.2085,   -46.73,    52.2858,  -148.42,    62.0695,    94.90,          0,     0.00,    34.4629,   154.85,    27.2161,   133.25,     52.291,    31.57,    62.0741,   -85.11,          0,     0.00,    34.4633,   -25.15
Line.L64,    27.2161,   -46.75,    18.0065,  -155.38,    62.0741,    94.89,          0,     0.00,    34.6545,    94.99,    27.2253,   133.23,    18.0142,    24.59,    62.0796,   -85.12,          0,     0.00,    34.6547,   -85.01
Line.L65, 0.00984813,    89.02,  0.0101386,   -29.73,    34.6507,    95.01,          0,     0.00,    34.6547,    94.99, 3.63798E-12,   180.00, 6.76031E-12,   137.73,    34.6549,   -85.01,          0,     0.00,    34.6549,   -85.01
Line.L66,    54.7685,   -27.62,          0,     0.00,          0,     0.00,          0,     0.00,    54.7685,   -27.62,    54.7686,   152.38,          0,     0.00,          0,     0.00,          0,     0.00,    54.7686,   152.38
Line.L67,    118.256,    24.71,    126.412,  -106.04,    132.947,   136.31,          0,     0.00,    30.8143,   140.07,    118.256,  -155.29,    126.412,    73.96,    132.947,   -43.69,          0,     0.00,    30.8143,   -39.93
Line.L68,    198.805,  -167.92,    219.837,    68.48,    212.106,   -50.31,          0,     0.00,    21.7064,    -0.84,    198.806,    12.08,    219.837,  -111.52,    212.106,   129.69,          0,     0.00,    21.7064,   179.16
Line.L69,    45.6614,   -27.63,          0,     0.00,          0,     0.00,          0,     0.00,    45.6614,   -27.63,    45.6616,   152.37,          0,     0.00,          0,     0.00,          0,     0.00,    45.6616,   152.37
Line.L70,    27.4154,   -27.64,          0,     0.00,          0,     0.00,          0,     0.00,    27.4154,   -27.64,    27.4157,   152.36,          0,     0.00,          0,     0.00,          0,     0.00,    27.4157,   152.36
Line.L71,    18.2813,   -27.65,          0,     0.00,          0,     0.00,          0,     0.00,    18.2813,   -27.65,    18.2816,   152.35,          0,     0.00,          0,     0.00,          0,     0.00,    18.2816,   152.35
Line.L72,    55.4229,    93.42,          0,     0.00,          0,     0.00,          0,     0.00,    55.4229,    93.42,    55.4231,   -86.58,          0,     0.00,          0,     0.00,          0,     0.00,    55.4231,   -86.58
Line.L73,    118.256,    24.71,    126.412,  -106.04,    99.7451,   158.53,          0,     0.00,    40.9429,  -119.75,    118.256,  -155.29,    126.412,    73.96,    99.7447,   -21.47,          0,     0.00,    40.9429,    60.25
Line.L74,    37.2985,    93.41,          0,     0.00,          0,     0.00,          0,     0.00,    37.2985,    93.41,    37.2989,   -86.59,          0,     0.00,          0,     0.00,          0,     0.00,    37.2989,   -86.59
Line.L75,     18.175,    93.40,          0,     0.00,          0,     0.00,          0,     0.00,     18.175,    93.40,    18.1754,   -86.60,          0,     0.00,          0,     0.00,          0,     0.00,    18.1754,   -86.60
Line.L76,     76.803,    62.93,    76.8607,   -55.18,    77.0551,  -175.12,          0,     0.00,    2.40958,   -31.63,    76.8017,  -117.07,    76.8597,   124.81,    77.0539,     4.88,          0,     0.00,    2.40949,   148.37
Line.L77,    32.9827,     7.49,    57.9348,  -127.65,    20.9928,   159.68,          0,     0.00,    40.9351,  -123.13,    32.9822,  -172.51,    57.9354,    52.35,    20.9911,   -20.33,          0,     0.00,    40.9353,    56.87
Line.L78,    76.8017,    62.93,    79.4125,   -41.97,    77.0539,  -175.12,          0,     0.00,    19.3017,    26.90,    76.8014,  -117.07,    79.4122,   138.03,    77.0536,     4.88,          0,     0.00,    19.3016,  -153.10
Line.L79,    19.1169,   -27.80, 0.000664808,   -26.41, 0.000794001,  -145.85,          0,     0.00,    19.1172,   -27.80,    19.1171,   152.20, 1.02898E-11,  -135.00, 1.62695E-11,    26.57,          0,     0.00,    19.1171,   152.20
Line.L80,    79.3824,    76.87,    79.4115,   -41.97,    77.0529,  -175.12,          0,     0.00,    17.6514,    89.02,    79.3808,  -103.13,    79.4102,   138.03,    77.0514,     4.88,          0,     0.00,    17.6514,   -90.98
Line.L81,    79.3808,    76.87,    85.8215,   -30.18,    77.0514,  -175.12,          0,     0.00,    31.6328,    60.77,    79.3802,  -103.13,     85.821,   149.82,    77.0509,     4.88,          0,     0.00,    31.6328,  -119.23
Line.L82,    79.3802,    76.87,     85.821,   -30.18,    82.4647,  -155.91,          0,     0.00,    16.9422,     1.69,    79.3794,  -103.13,    85.8202,   149.82,    82.4638,    24.09,          0,     0.00,    16.9421,  -178.31
Line.L83,    27.1453,    93.14,          0,     0.00,          0,     0.00,          0,     0.00,    27.1453,    93.14,     27.146,   -86.86,          0,     0.00,          0,     0.00,          0,     0.00,     27.146,   -86.86
Line.L84,     85.797,    88.63,    85.8202,   -30.18,    82.4638,  -155.91,          0,     0.00,    9.01885,    83.97,    85.7962,   -91.37,    85.8195,   149.82,     82.463,    24.09,          0,     0.00,    9.01886,   -96.03
Line.L85,    18.1043,    93.13,          0,     0.00,          0,     0.00,          0,     0.00,    18.1043,    93.13,    18.1047,   -86.87,          0,     0.00,          0,     0.00,          0,     0.00,    18.1047,   -86.87
Line.L86,    32.9822,     7.49,     49.417,  -124.20,    20.9911,   159.67,          0,     0.00,    32.7911,  -116.75,    32.9818,  -172.51,    49.4172,    55.80,    20.9902,   -20.33,          0,     0.00,    32.7912,    63.25
Line.L87,    20.9267,    37.68,          0,     0.00,          0,     0.00,          0,     0.00,    20.9267,    37.68,    20.9264,  -142.33,          0,     0.00,          0,     0.00,          0,     0.00,    20.9264,  -142.33
Line.L88,    18.2361,   -27.76,    33.3302,  -112.09,    20.9902,   159.67,          0,     0.00,    35.8878,  -116.61,    18.2364,   152.24,    33.3302,    67.91,    20.9896,   -20.33,          0,     0.00,    35.8878,    63.39
Line.L89,    21.0907,   -82.51,          0,     0.00,          0,     0.00,          0,     0.00,    21.0907,   -82.51,    21.0903,    97.49,          0,     0.00,          0,     0.00,          0,     0.00,    21.0903,    97.49
Line.L90,    18.2364,   -27.76,    18.2476,  -146.87,    20.9896,   159.67,          0,     0.00,    21.8921,  -149.31,    18.2366,   152.24,    18.2479,    33.13,    20.9892,   -20.33,          0,     0.00,    21.8921,    30.69
Line.L91,    20.9881,   159.66,          0,     0.00,          0,     0.00,          0,     0.00,    20.9881,   159.66,    20.9877,   -20.34,          0,     0.00,          0,     0.00,          0,     0.00,    20.9877,   -20.34
Line.L92,    18.2366,   -27.76,    18.2479,  -146.87, 0.00185224,  -145.85,          0,     0.00,    18.4887,   -87.35,    18.2369,   152.23,    18.2482,    33.13, 0.00105843,    34.15,          0,     0.00,    18.4887,    92.65
Line.L93,    18.2372,   -27.77,          0,     0.00,          0,     0.00,          0,     0.00,    18.2372,   -27.77,    18.2374,   152.23,          0,     0.00,          0,     0.00,          0,     0.00,    18.2374,   152.23
Line.L94, 0.000981632,    80.84,    18.2482,  -146.87, 0.00105843,  -145.85,          0,     0.00,    18.2486,  -146.87, 5.14488E-12,   135.00,    18.2487,    33.12, 3.63798E-12,   180.00,          0,     0.00,    18.2487,    33.12
Line.L95,    9.12541,  -146.88,          0,     0.00,          0,     0.00,          0,     0.00,    9.12541,  -146.88,    9.12559,    33.12,          0,     0.00,          0,     0.00,          0,     0.00,    9.12559,    33.12
Line.L96,    252.126,  -177.39,    250.558,    63.74,    250.233,   -56.43,          0,     0.00,    5.42188,   118.96,    252.126,     2.61,    250.558,  -116.26,    250.233,   123.57,          0,     0.00,    5.42185,   -61.04
Line.L97,    268.034,  -179.32,    250.558,    63.74,    250.233,   -56.43,          0,     0.00,    22.8598,   145.22,    268.034,     0.68,    250.558,  -116.26,    250.233,   123.57,          0,     0.00,    22.8598,   -34.78
Line.L98,    268.034,  -179.32,    266.428,    61.84,    250.233,   -56.43,          0,     0.00,    23.5652,    99.54,    268.034,     0.68,    266.428,  -118.16,    250.233,   123.57,          0,     0.00,    23.5651,   -80.46
Line.L99,    268.034,  -179.32,    266.428,    61.84,    267.255,   -58.44,          0,     0.00,    4.67068,   121.04,    268.034,     0.68,    266.427,  -118.16,    267.255,   121.56,          0,     0.00,    4.67057,   -58.96
Line.L118,    64.8871,   -27.68,    36.3334,  -146.24,    45.3619,    93.70,          0,     0.00,    24.8507,   -11.76,    64.8873,   152.32,    36.3338,    33.76,    45.3622,   -86.30,          0,     0.00,    24.8507,   168.24
Line.L100,    45.3643,    93.69,          0,     0.00,          0,     0.00,          0,     0.00,    45.3643,    93.69,    45.3645,   -86.31,          0,     0.00,          0,     0.00,          0,     0.00,    45.3645,   -86.31
Line.L101,    64.8873,   -27.68,    36.3338,  -146.24,  0.0056346,  -154.18,          0,     0.00,    57.2361,   -61.57,    64.8877,   152.32,    36.3343,    33.76, 0.00466612,    25.82,          0,     0.00,    57.2361,   118.43
Line.L102,    36.3095,    93.68,          0,     0.00,          0,     0.00,          0,     0.00,    36.3095,    93.68,    36.3098,   -86.32,          0,     0.00,          0,     0.00,          0,     0.00,    36.3098,   -86.32
Line.L103,    18.1705,    93.66,          0,     0.00,          0,     0.00,          0,     0.00,    18.1705,    93.66,    18.1711,   -86.34,          0,     0.00,          0,     0.00,          0,     0.00,    18.1711,   -86.34
Line.L104,    36.3368,  -146.25,          0,     0.00,          0,     0.00,          0,     0.00,    36.3368,  -146.25,     36.337,    33.75,          0,     0.00,          0,     0.00,          0,     0.00,     36.337,    33.75
Line.L105,    64.8877,   -27.68, 0.00433158,   -21.59, 0.00466612,  -154.18,          0,     0.00,    64.8892,   -27.68,     64.888,   152.32, 0.00326918,   158.41, 0.00352158,    25.82,          0,     0.00,    64.8892,   152.32
Line.L106,    18.1813,  -146.26,          0,     0.00,          0,     0.00,          0,     0.00,    18.1813,  -146.26,    18.1819,    33.73,          0,     0.00,          0,     0.00,          0,     0.00,    18.1819,    33.73
Line.L107,    64.8892,   -27.68,          0,     0.00,          0,     0.00,          0,     0.00,    64.8892,   -27.68,    64.8896,   152.32,          0,     0.00,          0,     0.00,          0,     0.00,    64.8896,   152.32
Line.L108,  0.0029514,    85.53, 0.00326918,   -21.59, 0.00352158,  -154.18,          0,     0.00, 0.000228597,    64.03, 2.72848E-12,    90.00, 2.03369E-12,    63.43, 2.57244E-12,   -45.00,          0,     0.00, 3.85866E-12,    45.00
Line.L109,    46.5706,   -27.70,          0,     0.00,          0,     0.00,          0,     0.00,    46.5706,   -27.70,    46.5709,   152.29,          0,     0.00,          0,     0.00,          0,     0.00,    46.5709,   152.29
Line.L110,    9.18357,   -27.68,          0,     0.00,          0,     0.00,          0,     0.00,    9.18357,   -27.68,     9.1841,   152.32,          0,     0.00,          0,     0.00,          0,     0.00,     9.1841,   152.32
Line.L111,    37.3873,   -27.71,          0,     0.00,          0,     0.00,          0,     0.00,    37.3873,   -27.71,    37.3875,   152.29,          0,     0.00,          0,     0.00,          0,     0.00,    37.3875,   152.29
Line.L112,    28.0707,   -27.72,          0,     0.00,          0,     0.00,          0,     0.00,    28.0707,   -27.72,    28.0712,   152.28,          0,     0.00,          0,     0.00,          0,     0.00,    28.0712,   152.28
Line.L113,    9.20578,   -27.73,          0,     0.00,          0,     0.00,          0,     0.00,    9.20578,   -27.73,    9.20608,   152.27,          0,     0.00,          0,     0.00,          0,     0.00,    9.20608,   152.27
Line.L114,    135.906,   -30.45,    136.543,  -155.33,    98.2179,    87.56,          0,     0.00,    27.8843,   -95.63,    135.906,   149.55,    136.544,    24.67,    98.2184,   -92.45,          0,     0.00,    27.8846,    84.37
Line.L116,    85.4571,   -58.00,    45.9602,   118.27,    34.6172,    12.18,          0,     0.00,    62.4475,   -23.28,    85.4583,   122.00,    45.9614,   -61.73,    34.6183,  -167.82,          0,     0.00,    62.4476,   156.72
Line.L117,    42.2664,  -155.47,    94.7793,    61.15,     81.502,   -61.16,          0,     0.00,     46.979,    -7.25,     42.267,    24.54,    94.7793,  -118.85,    81.5018,   118.84,          0,     0.00,    46.9789,   172.75
Line.SW1,    380.239,   -35.19,    180.734,  -168.23,    256.063,    83.36,          0,     0.00,    163.435,    -0.58,    380.239,   144.81,    180.734,    11.77,    256.063,   -96.64,          0,     0.00,    163.435,   179.42
Line.SW2,    85.4571,   -58.00,    45.9602,   118.27,    34.6172,    12.18,          0,     0.00,    62.4475,   -23.28,    85.4571,   122.00,    45.9602,   -61.73,    34.6172,  -167.82,          0,     0.00,    62.4475,   156.72
Line.SW3,    135.906,   -30.45,    136.543,  -155.33,    98.2179,    87.56,          0,     0.00,    27.8843,   -95.63,    135.906,   149.55,    136.543,    24.67,    98.2179,   -92.44,          0,     0.00,    27.8843,    84.37
Line.SW4,    43.5872,  -155.47,    94.7793,    61.15,    83.5395,   -61.16,          0,     0.00,    47.1149,   -10.10,    43.5872,    24.53,    94.7793,  -118.85,    83.5395,   118.84,          0,     0.00,    47.1149,   169.90
Line.SW5,    64.8871,   -27.68,    36.3334,  -146.24,    45.3619,    93.70,          0,     0.00,    24.8507,   -11.76,    64.8871,   152.32,    36.3334,    33.76,    45.3619,   -86.30,          0,     0.00,    24.8507,   168.24
Line.SW6, 0.0000138686,   -86.06, 0.0000139694,   152.56, 0.000014107,    30.47,          0,     0.00, 7.56335E-7,   -18.97, 0.0000138686,    93.94, 0.0000139694,   -27.44, 0.000014107,  -149.53,          0,     0.00, 7.56335E-7,   161.03
Line.SW7,          0,     0.00,          0,     0.00,          0,     0.00,          0,     0.00,          0,     0.00,          0,     0.00,          0,     0.00,          0,     0.00,          0,     0.00,          0,     0.00
Line.SW8,          0,     0.00,          0,     0.00,          0,     0.00,          0,     0.00,          0,     0.00,          0,     0.00,          0,     0.00,          0,     0.00,          0,     0.00,          0,     0.00
Transformer.REG1A,    389.745,   -35.19,    185.253,  -168.23,    262.464,    83.36,    167.521,   179.42, 1.16415E-9,     0.00,    380.239,   144.81,    180.734,    11.77,    256.063,   -96.64,    163.435,    -0.58, 5.35131E-9,   135.88
Transformer.XFM1, 0.0000138299,   -90.64, 0.0000141194,   150.13, 0.0000139864,    29.73,          0,     0.00, 2.89668E-7,   151.40, 1.01685E-12,    63.43, 1.63961E-12,  -123.69, 1.28622E-12,    45.00,          0,     0.00, 6.4311E-13,    45.00
Transformer.REG2A,    27.9968,   -27.37,    27.9968,   152.63,          0,     0.00,          0,     0.00,          0,     0.00,    27.9968,   152.63,    27.9968,   -27.37,          0,     0.00,          0,     0.00,          0,     0.00
Transformer.REG3A,    18.8658,   -28.14,    18.8658,   151.86,          0,     0.00,          0,     0.00,          0,     0.00,    18.6329,   151.86,    18.6329,   -28.14,          0,     0.00,          0,     0.00,          0,     0.00
Transformer.REG4A,    43.5872,  -155.47,    43.5872,    24.53,          0,     0.00,          0,     0.00,          0,     0.00,    42.2664,    24.53,    42.2664,  -155.47,          0,     0.00,          0,     0.00,          0,     0.00
Transformer.REG3C,    18.6863,    93.15,    18.6863,   -86.85,          0,     0.00,          0,     0.00,          0,     0.00,    18.6863,   -86.85,    18.6863,    93.15,          0,     0.00,          0,     0.00,          0,     0.00
Transformer.REG4B,    94.7793,    61.15,    94.7793,  -118.85,          0,     0.00,          0,     0.00,          0,     0.00,    94.7793,  -118.85,    94.7793,    61.15,          0,     0.00,          0,     0.00,          0,     0.00
Transformer.REG4C,    83.5395,   -61.16,    83.5395,   118.84,          0,     0.00,          0,     0.00,          0,     0.00,     81.502,   118.84,     81.502,   -61.16,          0,     0.00,          0,     0.00,          0,     0.00
Capacitor.C83,    85.7962,    88.63,    85.8195,   -30.18,    86.0958,  -150.31,          0,     0.00,    1.43863,    -0.90,    85.7962,   -91.37,    85.8195,   149.82,    86.0958,    29.69,          0,     0.00,    1.43863,   179.10
Capacitor.C88A,    21.2835,    88.78,          0,     0.00,          0,     0.00,          0,     0.00,    21.2835,    88.78,    21.2835,   -91.22,          0,     0.00,          0,     0.00,          0,     0.00,    21.2835,   -91.22
Capacitor.C90B,     21.257,   -30.30,          0,     0.00,          0,     0.00,          0,     0.00,     21.257,   -30.30,     21.257,   149.70,          0,     0.00,          0,     0.00,          0,     0.00,     21.257,   149.70
Capacitor.C92C,    21.4941,  -150.12,          0,     0.00,          0,     0.00,          0,     0.00,    21.4941,  -150.12,    21.4941,    29.88,          0,     0.00,          0,     0.00,          0,     0.00,    21.4941,    29.88
Load.S1A,    18.3214,   -26.91,    18.3214,   153.09,          0,     0.00,          0,     0.00,          0,     0.00,          0,     0.00,          0,     0.00,          0,     0.00,          0,     0.00,          0,     0.00
Load.S2B,    9.09029,  -146.61,    9.09029,    33.39,          0,     0.00,          0,     0.00,          0,     0.00,          0,     0.00,          0,     0.00,          0,     0.00,          0,     0.00,          0,     0.00
Load.S4C,    18.3188,    93.32,    18.3188,   -86.68,          0,     0.00,          0,     0.00,          0,     0.00,          0,     0.00,          0,     0.00,          0,     0.00,          0,     0.00,          0,     0.00
Load.S5C,    9.31695,    93.30,    9.31695,   -86.70,          0,     0.00,          0,     0.00,          0,     0.00,          0,     0.00,          0,     0.00,          0,     0.00,          0,     0.00,          0,     0.00
Load.S6C,    18.9274,    93.29,    18.9274,   -86.71,          0,     0.00,          0,     0.00,          0,     0.00,          0,     0.00,          0,     0.00,          0,     0.00,          0,     0.00,          0,     0.00
Load.S7A,    9.21975,   -27.14,    9.21975,   152.86,          0,     0.00,          0,     0.00,          0,     0.00,          0,     0.00,          0,     0.00,          0,     0.00,          0,     0.00,          0,     0.00
Load.S9A,    18.5438,   -27.33,    18.5438,   152.67,          0,     0.00,          0,     0.00,          0,     0.00,          0,     0.00,          0,     0.00,          0,     0.00,          0,     0.00,          0,     0.00
Load.S10A,    9.31695,   -27.36,    9.31695,   152.64,          0,     0.00,          0,     0.00,          0,     0.00,          0,     0.00,          0,     0.00,          0,     0.00,          0,     0.00,          0,     0.00
Load.S11A,    18.6808,   -27.37,    18.6808,   152.63,          0,     0.00,          0,     0.00,          0,     0.00,          0,     0.00,          0,     0.00,          0,     0.00,          0,     0.00,          0,     0.00
Load.S12B,    9.09688,  -146.69,    9.09688,    33.31,          0,     0.00,          0,     0.00,          0,     0.00,          0,     0.00,          0,     0.00,          0,     0.00,          0,     0.00,          0,     0.00
Load.S16C,    18.5095,    93.23,    18.5095,   -86.77,          0,     0.00,          0,     0.00,          0,     0.00,          0,     0.00,          0,     0.00,          0,     0.00,          0,     0.00,          0,     0.00
Load.S17C,    9.24992,    93.24,    9.24992,   -86.76,          0,     0.00,          0,     0.00,          0,     0.00,          0,     0.00,          0,     0.00,          0,     0.00,          0,     0.00,          0,     0.00
Load.S19A,    18.8083,   -27.94,    18.8083,   152.06,          0,     0.00,          0,     0.00,          0,     0.00,          0,     0.00,          0,     0.00,          0,     0.00,          0,     0.00,          0,     0.00
Load.S20A,    18.6339,   -27.96,    18.6339,   152.04,          0,     0.00,          0,     0.00,          0,     0.00,          0,     0.00,          0,     0.00,          0,     0.00,          0,     0.00,          0,     0.00
Load.S22B,    18.9723,  -146.99,    18.9723,    33.01,          0,     0.00,          0,     0.00,          0,     0.00,          0,     0.00,          0,     0.00,          0,     0.00,          0,     0.00,          0,     0.00
Load.S24C,     18.674,    93.14,     18.674,   -86.86,          0,     0.00,          0,     0.00,          0,     0.00,          0,     0.00,          0,     0.00,          0,     0.00,          0,     0.00,          0,     0.00
Load.S28A,    18.6339,   -28.10,    18.6339,   151.90,          0,     0.00,          0,     0.00,          0,     0.00,          0,     0.00,          0,     0.00,          0,     0.00,          0,     0.00,          0,     0.00
Load.S29A,    18.4458,   -28.13,    18.4458,   151.87,          0,     0.00,          0,     0.00,          0,     0.00,          0,     0.00,          0,     0.00,          0,     0.00,          0,     0.00,          0,     0.00
Load.S30C,     18.687,    93.14,     18.687,   -86.86,          0,     0.00,          0,     0.00,          0,     0.00,          0,     0.00,          0,     0.00,          0,     0.00,          0,     0.00,          0,     0.00
Load.S31C,    9.34195,    93.15,    9.34195,   -86.85,          0,     0.00,          0,     0.00,          0,     0.00,          0,     0.00,          0,     0.00,          0,     0.00,          0,     0.00,          0,     0.00
Load.S32C,    9.34567,    93.14,    9.34567,   -86.86,          0,     0.00,          0,     0.00,          0,     0.00,          0,     0.00,          0,     0.00,          0,     0.00,          0,     0.00,          0,     0.00
Load.S33A,    18.6339,   -28.15,    18.6339,   151.85,          0,     0.00,          0,     0.00,          0,     0.00,          0,     0.00,          0,     0.00,          0,     0.00,          0,     0.00,          0,     0.00
Load.S34C,    18.7848,    93.26,    18.7848,   -86.74,          0,     0.00,          0,     0.00,          0,     0.00,          0,     0.00,          0,     0.00,          0,     0.00,          0,     0.00,          0,     0.00
Load.S35A,    10.7765,     2.94,    10.7765,  -177.06,          0,     0.00,          0,     0.00,          0,     0.00,          0,     0.00,          0,     0.00,          0,     0.00,          0,     0.00,          0,     0.00
Load.S37A,    18.4023,   -28.04,    18.4023,   151.96,          0,     0.00,          0,     0.00,          0,     0.00,          0,     0.00,          0,     0.00,          0,     0.00,          0,     0.00,          0,     0.00
Load.S38B,    9.31695,  -147.11,    9.31695,    32.89,          0,     0.00,          0,     0.00,          0,     0.00,          0,     0.00,          0,     0.00,          0,     0.00,          0,     0.00,          0,     0.00
Load.S39B,    9.17555,  -147.12,    9.17555,    32.88,          0,     0.00,          0,     0.00,          0,     0.00,          0,     0.00,          0,     0.00,          0,     0.00,          0,     0.00,          0,     0.00
Load.S41C,    9.32552,    93.09,    9.32552,   -86.91,          0,     0.00,          0,     0.00,          0,     0.00,          0,     0.00,          0,     0.00,          0,     0.00,          0,     0.00,          0,     0.00
Load.S42A,    9.44758,   -28.07,    9.44758,   151.93,          0,     0.00,          0,     0.00,          0,     0.00,          0,     0.00,          0,     0.00,          0,     0.00,          0,     0.00,          0,     0.00
Load.S43B,    18.8829,  -147.17,    18.8829,    32.83,          0,     0.00,          0,     0.00,          0,     0.00,          0,     0.00,          0,     0.00,          0,     0.00,          0,     0.00,          0,     0.00
Load.S45A,    9.31695,   -28.11,    9.31695,   151.89,          0,     0.00,          0,     0.00,          0,     0.00,          0,     0.00,          0,     0.00,          0,     0.00,          0,     0.00,          0,     0.00
Load.S46A,    9.46702,   -28.12,    9.46702,   151.88,          0,     0.00,          0,     0.00,          0,     0.00,          0,     0.00,          0,     0.00,          0,     0.00,          0,     0.00,          0,     0.00
Load.S47,    17.9083,   -37.10,    17.9083,  -156.18,    17.9083,    84.01,   0.320492,    44.25,          0,     0.00,          0,     0.00,          0,     0.00,          0,     0.00,          0,     0.00,          0,     0.00
Load.S48,    35.2092,   -37.10,    36.2419,  -156.19,    35.6675,    84.00,    1.40525,    16.61,          0,     0.00,          0,     0.00,          0,     0.00,          0,     0.00,          0,     0.00,          0,     0.00
Load.S49A,    18.2172,   -37.10,    18.2172,   142.90,          0,     0.00,          0,     0.00,          0,     0.00,          0,     0.00,          0,     0.00,          0,     0.00,          0,     0.00,          0,     0.00
Load.S49B,    35.4057,  -156.19,    35.4057,    23.81,          0,     0.00,          0,     0.00,          0,     0.00,          0,     0.00,          0,     0.00,          0,     0.00,          0,     0.00,          0,     0.00
Load.S49C,    16.8558,    89.78,    16.8558,   -90.22,          0,     0.00,          0,     0.00,          0,     0.00,          0,     0.00,          0,     0.00,          0,     0.00,          0,     0.00,          0,     0.00
Load.S50C,    18.7062,    92.94,    18.7062,   -87.06,          0,     0.00,          0,     0.00,          0,     0.00,          0,     0.00,          0,     0.00,          0,     0.00,          0,     0.00,          0,     0.00
Load.S51A,    9.47246,   -28.15,    9.47246,   151.85,          0,     0.00,          0,     0.00,          0,     0.00,          0,     0.00,          0,     0.00,          0,     0.00,          0,     0.00,          0,     0.00
Load.S52A,    18.6594,   -27.54,    18.6594,   152.46,          0,     0.00,          0,     0.00,          0,     0.00,          0,     0.00,          0,     0.00,          0,     0.00,          0,     0.00,          0,     0.00
Load.S53A,    18.6772,   -27.55,    18.6772,   152.45,          0,     0.00,          0,     0.00,          0,     0.00,          0,     0.00,          0,     0.00,          0,     0.00,          0,     0.00,          0,     0.00
Load.S55A,    9.28937,   -27.55,    9.28937,   152.45,          0,     0.00,          0,     0.00,          0,     0.00,          0,     0.00,          0,     0.00,          0,     0.00,          0,     0.00,          0,     0.00
Load.S56B,    9.09867,  -146.67,    9.09867,    33.33,          0,     0.00,          0,     0.00,          0,     0.00,          0,     0.00,          0,     0.00,          0,     0.00,          0,     0.00,          0,     0.00
Load.S58B,    9.31695,  -146.60,    9.31695,    33.40,          0,     0.00,          0,     0.00,          0,     0.00,          0,     0.00,          0,     0.00,          0,     0.00,          0,     0.00,          0,     0.00
Load.S59B,    9.10559,  -146.61,    9.10559,    33.39,          0,     0.00,          0,     0.00,          0,     0.00,          0,     0.00,          0,     0.00,          0,     0.00,          0,     0.00,          0,     0.00
Load.S60A,    9.37318,   -27.56,    9.37318,   152.44,          0,     0.00,          0,     0.00,          0,     0.00,          0,     0.00,          0,     0.00,          0,     0.00,          0,     0.00,          0,     0.00
Load.S62C,     18.686,    93.49,     18.686,   -86.51,          0,     0.00,          0,     0.00,          0,     0.00,          0,     0.00,          0,     0.00,          0,     0.00,          0,     0.00,          0,     0.00
Load.S63A,    18.7724,   -27.55,    18.7724,   152.45,          0,     0.00,          0,     0.00,          0,     0.00,          0,     0.00,          0,     0.00,          0,     0.00,          0,     0.00,          0,     0.00
Load.S64B,    34.4853,  -144.80,    34.4853,    35.20,          0,     0.00,          0,     0.00,          0,     0.00,          0,     0.00,          0,     0.00,          0,     0.00,          0,     0.00,          0,     0.00
Load.S65A,    10.3313,    -5.40,    10.3313,   174.60,          0,     0.00,          0,     0.00,          0,     0.00,          0,     0.00,          0,     0.00,          0,     0.00,          0,     0.00,          0,     0.00
Load.S65B,    10.4351,  -125.80,    10.4351,    54.20,          0,     0.00,          0,     0.00,          0,     0.00,          0,     0.00,          0,     0.00,          0,     0.00,          0,     0.00,          0,     0.00
Load.S65C,    20.6421,   113.90,    20.6421,   -66.10,          0,     0.00,          0,     0.00,          0,     0.00,          0,     0.00,          0,     0.00,          0,     0.00,          0,     0.00,          0,     0.00
Load.S66C,    34.6544,    94.99,    34.6544,   -85.01,          0,     0.00,          0,     0.00,          0,     0.00,          0,     0.00,          0,     0.00,          0,     0.00,          0,     0.00,          0,     0.00
Load.S68A,    9.10746,   -27.58,    9.10746,   152.42,          0,     0.00,          0,     0.00,          0,     0.00,          0,     0.00,          0,     0.00,          0,     0.00,          0,     0.00,          0,     0.00
Load.S69A,    18.2466,   -27.61,    18.2466,   152.39,          0,     0.00,          0,     0.00,          0,     0.00,          0,     0.00,          0,     0.00,          0,     0.00,          0,     0.00,          0,     0.00
Load.S70A,    9.13458,   -27.63,    9.13458,   152.37,          0,     0.00,          0,     0.00,          0,     0.00,          0,     0.00,          0,     0.00,          0,     0.00,          0,     0.00,          0,     0.00
Load.S71A,    18.2819,   -27.65,    18.2819,   152.35,          0,     0.00,          0,     0.00,          0,     0.00,          0,     0.00,          0,     0.00,          0,     0.00,          0,     0.00,          0,     0.00
Load.S73C,    18.1242,    93.45,    18.1242,   -86.55,          0,     0.00,          0,     0.00,          0,     0.00,          0,     0.00,          0,     0.00,          0,     0.00,          0,     0.00,          0,     0.00
Load.S74C,    19.1235,    93.41,    19.1235,   -86.59,          0,     0.00,          0,     0.00,          0,     0.00,          0,     0.00,          0,     0.00,          0,     0.00,          0,     0.00,          0,     0.00
Load.S75C,     18.175,    93.39,     18.175,   -86.61,          0,     0.00,          0,     0.00,          0,     0.00,          0,     0.00,          0,     0.00,          0,     0.00,          0,     0.00,          0,     0.00
Load.S76A,    31.7317,    -7.85,    31.7317,   172.15,          0,     0.00,          0,     0.00,          0,     0.00,          0,     0.00,          0,     0.00,          0,     0.00,          0,     0.00,          0,     0.00
Load.S76B,    20.6787,  -125.42,    20.6787,    54.58,          0,     0.00,          0,     0.00,          0,     0.00,          0,     0.00,          0,     0.00,          0,     0.00,          0,     0.00,          0,     0.00
Load.S76C,    20.6787,   113.80,    20.6787,   -66.20,          0,     0.00,          0,     0.00,          0,     0.00,          0,     0.00,          0,     0.00,          0,     0.00,          0,     0.00,          0,     0.00
Load.S77B,      18.16,  -146.60,      18.16,    33.40,          0,     0.00,          0,     0.00,          0,     0.00,          0,     0.00,          0,     0.00,          0,     0.00,          0,     0.00,          0,     0.00
Load.S79A,    19.1175,   -27.80,    19.1175,   152.20,          0,     0.00,          0,     0.00,          0,     0.00,          0,     0.00,          0,     0.00,          0,     0.00,          0,     0.00,          0,     0.00
Load.S80B,    18.1235,  -146.68,    18.1235,    33.32,          0,     0.00,          0,     0.00,          0,     0.00,          0,     0.00,          0,     0.00,          0,     0.00,          0,     0.00,          0,     0.00
Load.S82A,    18.0923,   -27.91,    18.0923,   152.09,          0,     0.00,          0,     0.00,          0,     0.00,          0,     0.00,          0,     0.00,          0,     0.00,          0,     0.00,          0,     0.00
Load.S83C,    9.00483,    93.12,    9.00483,   -86.88,          0,     0.00,          0,     0.00,          0,     0.00,          0,     0.00,          0,     0.00,          0,     0.00,          0,     0.00,          0,     0.00
Load.S84C,    9.04153,    93.15,    9.04153,   -86.85,          0,     0.00,          0,     0.00,          0,     0.00,          0,     0.00,          0,     0.00,          0,     0.00,          0,     0.00,          0,     0.00
Load.S85C,    18.1044,    93.12,    18.1044,   -86.88,          0,     0.00,          0,     0.00,          0,     0.00,          0,     0.00,          0,     0.00,          0,     0.00,          0,     0.00,          0,     0.00
Load.S86B,     9.1058,  -146.69,     9.1058,    33.31,          0,     0.00,          0,     0.00,          0,     0.00,          0,     0.00,          0,     0.00,          0,     0.00,          0,     0.00,          0,     0.00
Load.S87B,    18.2259,  -146.78,    18.2259,    33.22,          0,     0.00,          0,     0.00,          0,     0.00,          0,     0.00,          0,     0.00,          0,     0.00,          0,     0.00,          0,     0.00
Load.S88A,    18.2091,   -27.79,    18.2091,   152.21,          0,     0.00,          0,     0.00,          0,     0.00,          0,     0.00,          0,     0.00,          0,     0.00,          0,     0.00,          0,     0.00
Load.S90B,    18.6339,  -146.87,    18.6339,    33.13,          0,     0.00,          0,     0.00,          0,     0.00,          0,     0.00,          0,     0.00,          0,     0.00,          0,     0.00,          0,     0.00
Load.S92C,    18.0313,    93.31,    18.0313,   -86.69,          0,     0.00,          0,     0.00,          0,     0.00,          0,     0.00,          0,     0.00,          0,     0.00,          0,     0.00,          0,     0.00
Load.S94A,    18.2377,   -27.77,    18.2377,   152.23,          0,     0.00,          0,     0.00,          0,     0.00,          0,     0.00,          0,     0.00,          0,     0.00,          0,     0.00,          0,     0.00
Load.S95B,    9.12315,  -146.87,    9.12315,    33.13,          0,     0.00,          0,     0.00,          0,     0.00,          0,     0.00,          0,     0.00,          0,     0.00,          0,     0.00,          0,     0.00
Load.S96B,    9.12546,  -146.88,    9.12546,    33.12,          0,     0.00,          0,     0.00,          0,     0.00,          0,     0.00,          0,     0.00,          0,     0.00,          0,     0.00,          0,     0.00
Load.S98A,     18.157,   -27.19,     18.157,   152.81,          0,     0.00,          0,     0.00,          0,     0.00,          0,     0.00,          0,     0.00,          0,     0.00,          0,     0.00,          0,     0.00
Load.S99B,    18.0287,  -145.55,    18.0287,    34.45,          0,     0.00,          0,     0.00,          0,     0.00,          0,     0.00,          0,     0.00,          0,     0.00,          0,     0.00,          0,     0.00
Load.S100C,    19.2944,    94.45,    19.2944,   -85.55,          0,     0.00,          0,     0.00,          0,     0.00,          0,     0.00,          0,     0.00,          0,     0.00,          0,     0.00,          0,     0.00
Load.S102C,    9.05478,    93.72,    9.05478,   -86.28,          0,     0.00,          0,     0.00,          0,     0.00,          0,     0.00,          0,     0.00,          0,     0.00,          0,     0.00,          0,     0.00
Load.S103C,    18.1389,    93.69,    18.1389,   -86.31,          0,     0.00,          0,     0.00,          0,     0.00,          0,     0.00,          0,     0.00,          0,     0.00,          0,     0.00,          0,     0.00
Load.S104C,    18.1707,    93.65,    18.1707,   -86.35,          0,     0.00,          0,     0.00,          0,     0.00,          0,     0.00,          0,     0.00,          0,     0.00,          0,     0.00,          0,     0.00
Load.S106B,    18.1554,  -146.24,    18.1554,    33.76,          0,     0.00,          0,     0.00,          0,     0.00,          0,     0.00,          0,     0.00,          0,     0.00,          0,     0.00,          0,     0.00
Load.S107B,    18.1816,  -146.26,    18.1816,    33.74,          0,     0.00,          0,     0.00,          0,     0.00,          0,     0.00,          0,     0.00,          0,     0.00,          0,     0.00,          0,     0.00
Load.S109A,    18.3194,   -27.63,    18.3194,   152.37,          0,     0.00,          0,     0.00,          0,     0.00,          0,     0.00,          0,     0.00,          0,     0.00,          0,     0.00,          0,     0.00
Load.S111A,     9.1843,   -27.69,     9.1843,   152.31,          0,     0.00,          0,     0.00,          0,     0.00,          0,     0.00,          0,     0.00,          0,     0.00,          0,     0.00,          0,     0.00
Load.S112A,    9.31695,   -27.68,    9.31695,   152.32,          0,     0.00,          0,     0.00,          0,     0.00,          0,     0.00,          0,     0.00,          0,     0.00,          0,     0.00,          0,     0.00
Load.S113A,    18.8658,   -27.72,    18.8658,   152.28,          0,     0.00,          0,     0.00,          0,     0.00,          0,     0.00,          0,     0.00,          0,     0.00,          0,     0.00,          0,     0.00
Load.S114A,    9.20627,   -27.73,    9.20627,   152.27,          0,     0.00,          0,     0.00,          0,     0.00,          0,     0.00,          0,     0.00,          0,     0.00,          0,     0.00,          0,     0.00
Generator.2MWGEN,    268.052,  -179.32,     266.42,    61.85,     267.24,   -58.45,    4.71867,   -58.06,          0,     0.00,          0,     0.00,          0,     0.00,          0,     0.00,          0,     0.00,          0,     0.00
